OPT_V8/Brussels_test_1203-1157/powerflow_results_t12.txt
Pandapower Network Debug Info
==================================================

BUS:
       vm_pu  va_degree          p_mw    q_mvar
0   0.995642   0.313609 -3.960262e-05  0.001159
1   0.992937   0.512593 -8.043716e-06  0.002319
2   0.990455   0.695898  0.000000e+00  0.003478
3   0.993138   0.489968  1.015165e-04  0.004638
4   0.993220   0.513941 -1.815669e-05  0.005797
5   0.994945   0.371415 -1.616733e-05  0.006956
6   0.994153   0.429885  0.000000e+00  0.001159
7   0.998170   0.076077  7.300398e-04  0.002319
8   0.998761   0.105543 -7.392624e-04  0.003478
9   0.999943   0.004201 -1.032167e-06  0.011594
10  0.999936   0.004660 -6.757281e-08  0.010435
11  0.999932   0.005018  0.000000e+00  0.012753
12  0.999886   0.008347 -8.696744e-06  0.006956
13  0.999873   0.009333 -5.995115e-08  0.011594
14  0.999877   0.009008 -4.671373e-07  0.013913
15  0.999964   0.002660  0.000000e+00  0.000000
16  0.999964   0.002666  0.000000e+00  0.000000
17  0.999888   0.008209  0.000000e+00  0.000000
18  0.999888   0.008220  0.000000e+00  0.000000
19  1.000000   0.000000 -1.859500e-04 -0.051464
20  1.000000   0.000007  0.000000e+00  0.000000
21  1.000000   0.000000 -8.860364e-05 -0.057267
22  1.000000   0.000008  0.000000e+00  0.000000
--------------------------------------------------

LINE:
       p_from_mw  q_from_mvar       p_to_mw  q_to_mvar         pl_mw       ql_mvar  i_from_ka   i_to_ka      i_ka  vm_from_pu  va_from_degree  vm_to_pu  va_to_degree  loading_percent
0   1.759439e-04     0.047464 -1.737403e-04  -0.047462  2.203608e-06  1.718189e-06   0.001827  0.001827  0.001827    1.000000        0.000007  0.999964      0.002660         0.794307
1   7.859608e-05     0.053267 -7.096381e-05  -0.053261  7.632264e-06  5.951002e-06   0.002050  0.002050  0.002050    1.000000        0.000008  0.999888      0.008209         0.891418
2   1.014094e-07     0.034783  8.342150e-07  -0.034782  9.356244e-07  7.295217e-07   0.001339  0.001339  0.001339    0.999964        0.002660  0.999943      0.004201         0.582106
3  -8.680006e-06     0.006956  8.696745e-06  -0.006956  1.673867e-08  1.305142e-08   0.000268  0.000268  0.000268    0.999888        0.008209  0.999886      0.008347         0.116427
4  -1.055013e-07     0.025507  4.613315e-07  -0.025507  3.558302e-07  2.774467e-07   0.000982  0.000982  0.000982    0.999888        0.008209  0.999877      0.009008         0.426904
5   1.636382e-04     0.011680 -9.981802e-05  -0.011630  6.382014e-05  4.976161e-05   0.016860  0.016860  0.016860    0.999964        0.002666  0.995642      0.313609         7.330560
6   3.664936e-05     0.008157  1.498323e-05  -0.008117  5.163259e-05  4.025878e-05   0.011775  0.011775  0.011775    0.999888        0.008220  0.994945      0.371415         5.119573
7   7.340472e-04     0.002322 -7.300398e-04  -0.002319  4.007350e-06  3.124597e-06   0.003515  0.003515  0.003515    0.999888        0.008220  0.998170      0.076077         1.528386
8  -7.009491e-04     0.009319  7.159693e-04  -0.009308  1.502026e-05  1.171154e-05   0.013491  0.013491  0.013491    0.999888        0.008220  0.998761      0.105543         5.865498
9  -1.198489e-08    -0.023188  1.979522e-07   0.023188  1.859673e-07  1.450018e-07   0.000893  0.000893  0.000893    0.999936        0.004660  0.999943      0.004201         0.388072
10 -2.856021e-13    -0.012753  7.955737e-08   0.012753  7.955709e-08  6.203197e-08   0.000491  0.000491  0.000491    0.999932        0.005018  0.999936      0.004660         0.213440
11  5.806305e-09     0.011594  5.995108e-08  -0.011594  6.575739e-08  5.127212e-08   0.000446  0.000446  0.000446    0.999877        0.009008  0.999873      0.009333         0.194048
12 -3.111874e-06    -0.005806  2.333794e-05   0.005821  2.022606e-05  1.577060e-05   0.008439  0.008439  0.008439    0.992937        0.512593  0.995642      0.313609         3.669307
13 -1.015165e-04    -0.004638  1.160827e-04   0.004649  1.456619e-05  1.135750e-05   0.006742  0.006742  0.006742    0.993138        0.489968  0.995642      0.313609         2.931156
14  9.679893e-17    -0.003478  1.115559e-05   0.003487  1.115559e-05  8.698197e-06   0.005069  0.005069  0.005069    0.990455        0.695898  0.992937      0.512593         2.203794
15  2.329307e-05     0.005829  1.815669e-05  -0.005797  4.144975e-05  3.231906e-05   0.008424  0.008424  0.008424    0.998761        0.105543  0.993220      0.513941         3.662783
16  7.684961e-17    -0.001159  1.184103e-06   0.001160  1.184103e-06  9.232646e-07   0.001683  0.001683  0.001683    0.994153        0.429885  0.994945      0.371415         0.731866
--------------------------------------------------

TRAFO:
    p_hv_mw  q_hv_mvar   p_lv_mw  q_lv_mvar    pl_mw  ql_mvar   i_hv_ka   i_lv_ka  vm_hv_pu  va_hv_degree  vm_lv_pu  va_lv_degree  loading_percent
0  0.000174   0.012679 -0.000164  -0.011680  0.00001    0.001  0.000488  0.016860  0.999964      0.002660  0.999964      0.002666         0.126811
1  0.000080   0.020798 -0.000070  -0.019798  0.00001    0.001  0.000801  0.028580  0.999888      0.008209  0.999888      0.008220         0.208003
2  0.000186   0.051464 -0.000176  -0.047464  0.00001    0.004  0.000424  0.001827  1.000000      0.000000  1.000000      0.000007         0.128661
3  0.000089   0.057267 -0.000079  -0.053267  0.00001    0.004  0.000472  0.002050  1.000000      0.000000  1.000000      0.000008         0.143168
--------------------------------------------------
